demo-gld-ns3/F1_250_house.glm
clock {
     timezone EST+5EDT;
     starttime '2009-07-21 00:00:00';
     stoptime '2009-07-23 00:01:00';
}

#set profiler=1;
#set double_format=%+.12lg
#set randomseed=10;
#set relax_naming_rules=1;
#set minimum_timestep=60;
#include "water_and_setpoint_schedule_v3.glm";

#include "appliance_schedules.glm";

module market;
module tape;
module connection;
module climate;
module residential {
     implicit_enduses NONE;
};
module powerflow {
     solver_method FBS;
     NR_iteration_limit 100;
};

class player {
     double value;
}
object player {
     name phase_A_load;
     file phase_A.player;
     loop 1;
}
object player {
     name phase_B_load;
     file phase_B.player;
     loop 1;
}
object player {
     name phase_C_load;
     file phase_C.player;
     loop 1;
}
object csv_reader {
     name CSVREADER;
     filename "ColumbusWeather2009_2a.csv";
}

object climate {
     name "Minneapolis MN";
     tmyfile "ColumbusWeather2009_2a.csv";
     reader CSVREADER;
};

class auction {
     double day_ahead_average;
 	 double day_ahead_std;
 	 double current_price_mean_24h;
     double current_price_stdev_24h;
}
object auction {
     name Market2;
     unit kW;
     period 300;
     price_cap 3.78;
     transaction_log_file log_file_F1_250_house.csv;
     curve_log_file bid_curve_F1_250_house.csv;
     curve_log_info EXTRA;
     object recorder {
          property current_market.clearing_quantity;
          limit 100000000;
          interval 300;
          file clearedquantity_F1_250_house.csv;
     };
     object recorder {
          property base_price;
          limit 100000000;
          interval 300;
          file LMPbaseprice_F1_250_house.csv;
     };
     capacity_reference_object F1_Transformer1;
     capacity_reference_property power_out_real;
     max_capacity_reference_bid_quantity 1125;
     object player {
		 property capacity_reference_bid_price;
		 file AEP_RT_LMP.player;
		 loop 0;
	 };
     object recorder {
          property capacity_reference_bid_price, current_market.clearing_price, current_market.clearing_quantity;
          limit 100000000;
          interval 60;
          file baseprice_clearedprice_clearedquantity_F1_250_house.csv;
     };
     init_price 0.042676;
     init_stdev 0.020000;
     use_future_mean_price FALSE;
     warmup 0;
}
object fncs_msg {
     name F1_250_house;
 	 parent Market2;
     route "function:controller/submit_bid_state -> auction/submit_bid_state";
     option "transport:hostname localhost, port 5570";
     configure F1_250_house.txt;
}
object transformer_configuration {
     name substation_config;
     connect_type WYE_WYE;
     install_type PADMOUNT;
     primary_voltage 345000 V;
     secondary_voltage 7200 V;
     power_rating 3750;
     powerA_rating 1250;
     powerB_rating 1250;
     powerC_rating 1250;
     impedance 0.0015+0.00675j;
}

object transformer_configuration {
     name default_transformer_A;
     connect_type SINGLE_PHASE_CENTER_TAPPED;
     install_type PADMOUNT;
     primary_voltage 7200 V;
     secondary_voltage 124 V;
     power_rating 1250;
     powerA_rating 1250;
     impedance 0.015+0.0675j;
}

object transformer_configuration {
     name default_transformer_B;
     connect_type SINGLE_PHASE_CENTER_TAPPED;
     install_type PADMOUNT;
     primary_voltage 7200 V;
     secondary_voltage 124 V;
     power_rating 1250;
     powerB_rating 1250;
     impedance 0.015+0.0675j;
}

object transformer_configuration {
     name default_transformer_C;
     connect_type SINGLE_PHASE_CENTER_TAPPED;
     install_type PADMOUNT;
     primary_voltage 7200 V;
     secondary_voltage 124 V;
     power_rating 1250;
     powerC_rating 1250;
     impedance 0.015+0.0675j;
}

object triplex_line_conductor {
     name Name_1_0_AA_triplex;
     resistance 0.57;
     geometric_mean_radius 0.0111;
}

object triplex_line_configuration {
     name TLCFG;
     conductor_1 Name_1_0_AA_triplex;
     conductor_2 Name_1_0_AA_triplex;
     conductor_N Name_1_0_AA_triplex;
     insulation_thickness 0.08;
     diameter 0.368;
}

object substation {
     bustype SWING;
     name ROOT;
     phases ABCN;
     reference_phase PHASE_A;
     positive_sequence_voltage 345000.0+0.0j;
     nominal_voltage 345000;
}

object transformer {
     phases ABCN;
     groupid F1_Network_Trans;
     name F1_Transformer1;
     from ROOT;
     to F1_transformer_meter;
     configuration substation_config;
     object recorder {
          property power_out_real;
          limit 100000000;
          interval 60;
          file totalload_F1_250_house.csv;
     };
}

object meter {
     name F1_transformer_meter;
     phases ABCN;
     nominal_voltage 7200;
}

object load {
     name unresp_load;
     nominal_voltage 7200;
     phases ABCN;
     parent F1_transformer_meter;
     constant_power_A_real phase_A_load.value*0.2;
     constant_power_B_real phase_B_load.value*0.2;
     constant_power_C_real phase_C_load.value*0.2;
};

object transformer {
     name F1_center_tap_transformer_A;
     phases AS;
     from F1_transformer_meter;
     to F1_triplex_node_A;
     configuration default_transformer_A;
}

object transformer {
     name F1_center_tap_transformer_B;
     phases BS;
     from F1_transformer_meter;
     to F1_triplex_node_B;
     configuration default_transformer_B;
}

object transformer {
     name F1_center_tap_transformer_C;
     phases CS;
     from F1_transformer_meter;
     to F1_triplex_node_C;
     configuration default_transformer_C;
}

object triplex_meter {
     name F1_triplex_node_A;
     phases AS;
     nominal_voltage 124.00;
}

object triplex_meter {
     name F1_triplex_node_B;
     phases BS;
     nominal_voltage 124.00;
}

object triplex_meter {
     name F1_triplex_node_C;
     phases CS;
     nominal_voltage 124.00;
}

object triplex_line {
     from F1_triplex_node_A;
     to F1_tpm_flatrate_A1;
     groupid F1_Triplex_Line;
     phases AS;
     length 10;
     configuration TLCFG;
}

object triplex_meter {
     nominal_voltage 124;
     phases AS;
     name F1_tpm_flatrate_A1;
     groupid F1_flatrate_meter;
}

object triplex_meter {
     nominal_voltage 124;
     phases AS;
     name F1_tpm_rt_A1;
     groupid F1_rt_meter;
     parent F1_tpm_flatrate_A1;
}

object house {
     name H_1;
     //Residential_2
     parent F1_tpm_rt_A1;
     schedule_skew -685;
     Rroof 33.69;
     Rwall 17.71;
     Rfloor 17.02;
     Rdoors 5;
     Rwindows 1.81;
     airchange_per_hour 0.80;
     hvac_power_factor 0.97;
     cooling_system_type ELECTRIC;
     heating_system_type GAS;
     fan_type ONE_SPEED;
     hvac_breaker_rating 200;
     total_thermal_mass_per_floor_area 3.01;
     motor_efficiency AVERAGE;
     motor_model BASIC;
     cooling_COP 3.90;
     floor_area 1040;
     number_of_doors 2;
     air_temperature 71.9;
     mass_temperature 71.9;
     heating_setpoint heating7*0.985+2.01;

     object controller {
          name C250_1;
          market Market2;
          schedule_skew -685;
          bid_mode PROXY;
          proxy_average 0.042676;
          proxy_standard_deviation 0.020000;
          proxy_market_id 1;
          proxy_clear_price 0.042676;
          proxy_price_cap 3.78;
          proxy_market_unit kW;
          proxy_initial_price 0.042676;
          bid_delay 57;
          control_mode RAMP;
          base_setpoint cooling4*1.035+3.08;
          setpoint cooling_setpoint;
          target air_temperature;
          deadband thermostat_deadband;
          use_predictive_bidding TRUE;
          average_target current_price_mean_24h;
          standard_deviation_target current_price_stdev_24h;
          period 300;
          demand last_cooling_load;
           range_high 6.000;
           range_low -3.000;
           ramp_high 2.400;
           ramp_low 2.400;
          total total_load;
          load hvac_load;
          state power_state;
     };

     object ZIPload {
          schedule_skew -685;
          base_power LIGHTS*0.8709;
          power_fraction 0.000000;
          impedance_fraction 1.000000;
          current_fraction 0.000000;
          power_pf 0.000;
          current_pf 0.000;
          impedance_pf 1.000;
          heat_fraction 0.70;
     };
     object ZIPload {
          schedule_skew -685;
          base_power CLOTHESWASHER*0.7763;
          power_fraction 1.000000;
          impedance_fraction 0.000000;
          current_fraction 0.000000;
          power_pf 0.970;
          current_pf 0.970;
          impedance_pf 0.970;
          heat_fraction 0.86;
     };
     object ZIPload {
          schedule_skew -685;
          base_power REFRIGERATOR*1.0019;
          power_fraction 1.000000;
          impedance_fraction 0.000000;
          current_fraction 0.000000;
          power_pf 0.970;
          current_pf 0.970;
          impedance_pf 0.970;
          heat_fraction 0.77;
     };
     object ZIPload {
          schedule_skew -685;
          base_power DRYER*0.9110;
          power_fraction 0.100000;
          impedance_fraction 0.800000;
          current_fraction 0.100000;
          power_pf 0.900;
          current_pf 0.900;
          impedance_pf 1.000;
          heat_fraction 0.80;
     };
     object ZIPload {
          schedule_skew -685;
          base_power FREEZER*1.0590;
          power_fraction 1.000000;
          impedance_fraction 0.000000;
          current_fraction 0.000000;
          power_pf 0.970;
          current_pf 0.970;
          impedance_pf 0.970;
          heat_fraction 0.86;
     };
     object ZIPload {
          schedule_skew -685;
          base_power RANGE*0.6381;
          power_fraction 0.000000;
          impedance_fraction 1.000000;
          current_fraction 0.000000;
          power_pf 0.000;
          current_pf 0.000;
          impedance_pf 1.000;
          heat_fraction 0.94;
     };
     object ZIPload {
          schedule_skew -685;
          base_power MICROWAVE*1.0063;
          power_fraction 1.000000;
          impedance_fraction 0.000000;
          current_fraction 0.000000;
          power_pf 0.970;
          current_pf 0.970;
          impedance_pf 0.970;
          heat_fraction 0.67;
     };
}

object triplex_line {
     from F1_triplex_node_A;
     to F1_tpm_flatrate_A2;
     groupid F1_Triplex_Line;
     phases AS;
     length 10;
     configuration TLCFG;
}

object triplex_meter {
     nominal_voltage 124;
     phases AS;
     name F1_tpm_flatrate_A2;
     groupid F1_flatrate_meter;
}

object triplex_meter {
     nominal_voltage 124;
     phases AS;
     name F1_tpm_rt_A2;
     groupid F1_rt_meter;
     parent F1_tpm_flatrate_A2;
}

object house {
     name H_2;
     //Residential_1
     parent F1_tpm_rt_A2;
     schedule_skew -97;
     Rroof 21.61;
     Rwall 9.30;
     Rfloor 11.38;
     Rdoors 3;
     Rwindows 1.56;
     airchange_per_hour 1.02;
     hvac_power_factor 0.97;
     cooling_system_type ELECTRIC;
     heating_system_type GAS;
     fan_type ONE_SPEED;
     hvac_breaker_rating 200;
     total_thermal_mass_per_floor_area 4.59;
     motor_efficiency AVERAGE;
     motor_model BASIC;
     cooling_COP 3.75;
     floor_area 1438;
     number_of_doors 2;
     air_temperature 71.9;
     mass_temperature 71.9;
     heating_setpoint heating7*0.965+2.34;

     object controller {
          name C250_2;
          market Market2;
          schedule_skew -97;
          bid_mode PROXY;
          proxy_average 0.042676;
          proxy_standard_deviation 0.020000;
          proxy_market_id 1;
          proxy_clear_price 0.042676;
          proxy_price_cap 3.78;
          proxy_market_unit kW;
          proxy_initial_price 0.042676;
          bid_delay 63;
          control_mode RAMP;
          base_setpoint cooling4*0.979+5.10;
          setpoint cooling_setpoint;
          target air_temperature;
          deadband thermostat_deadband;
          use_predictive_bidding TRUE;
          average_target current_price_mean_24h;
          standard_deviation_target current_price_stdev_24h;
          period 300;
          demand last_cooling_load;
           range_high 6.000;
           range_low -3.000;
           ramp_high 2.400;
           ramp_low 2.400;
          total total_load;
          load hvac_load;
          state power_state;
     };

     object ZIPload {
          schedule_skew -97;
          base_power LIGHTS*1.8020;
          power_fraction 0.600000;
          impedance_fraction 0.400000;
          current_fraction 0.000000;
          power_pf -0.780;
          current_pf 0.420;
          impedance_pf -0.880;
          heat_fraction 0.89;
     };
}

object triplex_line {
     from F1_triplex_node_A;
     to F1_tpm_flatrate_A3;
     groupid F1_Triplex_Line;
     phases AS;
     length 10;
     configuration TLCFG;
}

object triplex_meter {
     nominal_voltage 124;
     phases AS;
     name F1_tpm_flatrate_A3;
     groupid F1_flatrate_meter;
}

object triplex_meter {
     nominal_voltage 124;
     phases AS;
     name F1_tpm_rt_A3;
     groupid F1_rt_meter;
     parent F1_tpm_flatrate_A3;
}

object house {
     name H_3;
     //Residential_3
     parent F1_tpm_rt_A3;
     schedule_skew -481;
     Rroof 18.58;
     Rwall 11.08;
     Rfloor 11.36;
     Rdoors 3;
     Rwindows 0.91;
     airchange_per_hour 0.97;
     hvac_power_factor 0.97;
     cooling_system_type ELECTRIC;
     heating_system_type GAS;
     fan_type ONE_SPEED;
     hvac_breaker_rating 200;
     total_thermal_mass_per_floor_area 3.64;
     motor_efficiency AVERAGE;
     motor_model BASIC;
     cooling_COP 3.22;
     floor_area 3176;
     number_of_doors 4;
     air_temperature 71.2;
     mass_temperature 71.2;
     heating_setpoint heating8*1.021+2.25;

     object controller {
          name C250_3;
          market Market2;
          schedule_skew -481;
          bid_mode PROXY;
          proxy_average 0.042676;
          proxy_standard_deviation 0.020000;
          proxy_market_id 1;
          proxy_clear_price 0.042676;
          proxy_price_cap 3.78;
          proxy_market_unit kW;
          proxy_initial_price 0.042676;
          bid_delay 63;
          control_mode RAMP;
          base_setpoint cooling1*0.957+4.82;
          setpoint cooling_setpoint;
          target air_temperature;
          deadband thermostat_deadband;
          use_predictive_bidding TRUE;
          average_target current_price_mean_24h;
          standard_deviation_target current_price_stdev_24h;
          period 300;
          demand last_cooling_load;
           range_high 0.000;
           range_low 0.000;
           ramp_high 3.000;
           ramp_low 3.000;
          total total_load;
          load hvac_load;
          state power_state;
     };

     object ZIPload {
          schedule_skew -481;
          base_power LIGHTS*3.3714;
          power_fraction 0.000000;
          impedance_fraction 1.000000;
          current_fraction 0.000000;
          power_pf 0.000;
          current_pf 0.000;
          impedance_pf 1.000;
          heat_fraction 0.93;
     };
     object ZIPload {
          schedule_skew -481;
          base_power CLOTHESWASHER*0.7121;
          power_fraction 1.000000;
          impedance_fraction 0.000000;
          current_fraction 0.000000;
          power_pf 0.970;
          current_pf 0.970;
          impedance_pf 0.970;
          heat_fraction 0.65;
     };
     object ZIPload {
          schedule_skew -481;
          base_power REFRIGERATOR*1.4581;
          power_fraction 1.000000;
          impedance_fraction 0.000000;
          current_fraction 0.000000;
          power_pf 0.970;
          current_pf 0.970;
          impedance_pf 0.970;
          heat_fraction 0.79;
     };
     object ZIPload {
          schedule_skew -481;
          base_power DRYER*0.6684;
          power_fraction 0.100000;
          impedance_fraction 0.800000;
          current_fraction 0.100000;
          power_pf 0.900;
          current_pf 0.900;
          impedance_pf 1.000;
          heat_fraction 0.80;
     };
     object ZIPload {
          schedule_skew -481;
          base_power FREEZER*1.6326;
          power_fraction 1.000000;
          impedance_fraction 0.000000;
          current_fraction 0.000000;
          power_pf 0.970;
          current_pf 0.970;
          impedance_pf 0.970;
          heat_fraction 0.84;
     };
     object ZIPload {
          schedule_skew -481;
          base_power RANGE*0.8307;
          power_fraction 0.000000;
          impedance_fraction 1.000000;
          current_fraction 0.000000;
          power_pf 0.000;
          current_pf 0.000;
          impedance_pf 1.000;
          heat_fraction 0.71;
     };
     object ZIPload {
          schedule_skew -481;
          base_power MICROWAVE*1.3891;
          power_fraction 1.000000;
          impedance_fraction 0.000000;
          current_fraction 0.000000;
          power_pf 0.970;
          current_pf 0.970;
          impedance_pf 0.970;
          heat_fraction 0.64;
     };
}

object triplex_line {
     from F1_triplex_node_A;
     to F1_tpm_flatrate_A4;
     groupid F1_Triplex_Line;
     phases AS;
     length 10;
     configuration TLCFG;
}

object triplex_meter {
     nominal_voltage 124;
     phases AS;
     name F1_tpm_flatrate_A4;
     groupid F1_flatrate_meter;
}

object triplex_meter {
     nominal_voltage 124;
     phases AS;
     name F1_tpm_rt_A4;
     groupid F1_rt_meter;
     parent F1_tpm_flatrate_A4;
}

object house {
     name H_4;
     //Residential_1
     parent F1_tpm_rt_A4;
     schedule_skew 1997;
     Rroof 16.68;
     Rwall 11.39;
     Rfloor 11.98;
     Rdoors 3;
     Rwindows 1.08;
     airchange_per_hour 0.81;
     hvac_power_factor 0.97;
     cooling_system_type ELECTRIC;
     heating_system_type GAS;
     fan_type ONE_SPEED;
     hvac_breaker_rating 200;
     total_thermal_mass_per_floor_area 4.35;
     motor_efficiency AVERAGE;
     motor_model BASIC;
     cooling_COP 3.18;
     floor_area 618;
     number_of_doors 1;
     air_temperature 71.7;
     mass_temperature 71.7;
     heating_setpoint heating3*0.955+0.35;

     object controller {
          name C250_4;
          market Market2;
          schedule_skew 1997;
          bid_mode PROXY;
          proxy_average 0.042676;
          proxy_standard_deviation 0.020000;
          proxy_market_id 1;
          proxy_clear_price 0.042676;
          proxy_price_cap 3.78;
          proxy_market_unit kW;
          proxy_initial_price 0.042676;
          bid_delay 54;
          control_mode RAMP;
          base_setpoint cooling4*0.979+3.95;
          setpoint cooling_setpoint;
          target air_temperature;
          deadband thermostat_deadband;
          use_predictive_bidding TRUE;
          average_target current_price_mean_24h;
          standard_deviation_target current_price_stdev_24h;
          period 300;
          demand last_cooling_load;
           range_high 4.000;
           range_low -2.000;
           ramp_high 2.600;
           ramp_low 2.600;
          total total_load;
          load hvac_load;
          state power_state;
     };

     object ZIPload {
          schedule_skew 1997;
          base_power LIGHTS*1.7649;
          power_fraction 0.600000;
          impedance_fraction 0.400000;
          current_fraction 0.000000;
          power_pf -0.780;
          current_pf 0.420;
          impedance_pf -0.880;
          heat_fraction 0.79;
     };
}

object triplex_line {
     from F1_triplex_node_A;
     to F1_tpm_flatrate_A5;
     groupid F1_Triplex_Line;
     phases AS;
     length 10;
     configuration TLCFG;
}

object triplex_meter {
     nominal_voltage 124;
     phases AS;
     name F1_tpm_flatrate_A5;
     groupid F1_flatrate_meter;
}

object triplex_meter {
     nominal_voltage 124;
     phases AS;
     name F1_tpm_rt_A5;
     groupid F1_rt_meter;
     parent F1_tpm_flatrate_A5;
}

object house {
     name H_5;
     //Residential_1
     parent F1_tpm_rt_A5;
     schedule_skew -2380;
     Rroof 17.77;
     Rwall 8.67;
     Rfloor 10.59;
     Rdoors 3;
     Rwindows 1.14;
     airchange_per_hour 1.16;
     hvac_power_factor 0.97;
     cooling_system_type ELECTRIC;
     heating_system_type GAS;
     fan_type ONE_SPEED;
     hvac_breaker_rating 200;
     total_thermal_mass_per_floor_area 4.90;
     motor_efficiency AVERAGE;
     motor_model BASIC;
     cooling_COP 2.82;
     floor_area 746;
     number_of_doors 1;
     air_temperature 69.5;
     mass_temperature 69.5;
     heating_setpoint heating2*1.044+0.14;

     object controller {
          name C250_5;
          market Market2;
          schedule_skew -2380;
          bid_mode PROXY;
          proxy_average 0.042676;
          proxy_standard_deviation 0.020000;
          proxy_market_id 1;
          proxy_clear_price 0.042676;
          proxy_price_cap 3.78;
          proxy_market_unit kW;
          proxy_initial_price 0.042676;
          bid_delay 64;
          control_mode RAMP;
          base_setpoint cooling6*0.982+4.46;
          setpoint cooling_setpoint;
          target air_temperature;
          deadband thermostat_deadband;
          use_predictive_bidding TRUE;
          average_target current_price_mean_24h;
          standard_deviation_target current_price_stdev_24h;
          period 300;
          demand last_cooling_load;
           range_high 2.000;
           range_low -1.000;
           ramp_high 2.800;
           ramp_low 2.800;
          total total_load;
          load hvac_load;
          state power_state;
     };

     object ZIPload {
          schedule_skew -2380;
          base_power LIGHTS*1.6132;
          power_fraction 0.600000;
          impedance_fraction 0.400000;
          current_fraction 0.000000;
          power_pf -0.780;
          current_pf 0.420;
          impedance_pf -0.880;
          heat_fraction 0.72;
     };
}

object triplex_line {
     from F1_triplex_node_A;
     to F1_tpm_flatrate_A6;
     groupid F1_Triplex_Line;
     phases AS;
     length 10;
     configuration TLCFG;
}

object triplex_meter {
     nominal_voltage 124;
     phases AS;
     name F1_tpm_flatrate_A6;
     groupid F1_flatrate_meter;
}

object triplex_meter {
     nominal_voltage 124;
     phases AS;
     name F1_tpm_rt_A6;
     groupid F1_rt_meter;
     parent F1_tpm_flatrate_A6;
}

object house {
     name H_6;
     //Residential_2
     parent F1_tpm_rt_A6;
     schedule_skew -2502;
     Rroof 32.04;
     Rwall 18.56;
     Rfloor 13.84;
     Rdoors 5;
     Rwindows 1.95;
     airchange_per_hour 1.20;
     hvac_power_factor 0.97;
     cooling_system_type ELECTRIC;
     heating_system_type GAS;
     fan_type ONE_SPEED;
     hvac_breaker_rating 200;
     total_thermal_mass_per_floor_area 4.79;
     motor_efficiency AVERAGE;
     motor_model BASIC;
     cooling_COP 3.60;
     floor_area 798;
     number_of_doors 1;
     air_temperature 68.5;
     mass_temperature 68.5;
     heating_setpoint heating1*0.953+0.60;

     object controller {
          name C250_6;
          market Market2;
          schedule_skew -2502;
          bid_mode PROXY;
          proxy_average 0.042676;
          proxy_standard_deviation 0.020000;
          proxy_market_id 1;
          proxy_clear_price 0.042676;
          proxy_price_cap 3.78;
          proxy_market_unit kW;
          proxy_initial_price 0.042676;
          bid_delay 33;
          control_mode RAMP;
          base_setpoint cooling8*1.033+3.04;
          setpoint cooling_setpoint;
          target air_temperature;
          deadband thermostat_deadband;
          use_predictive_bidding TRUE;
          average_target current_price_mean_24h;
          standard_deviation_target current_price_stdev_24h;
          period 300;
          demand last_cooling_load;
           range_high 4.000;
           range_low -2.000;
           ramp_high 2.600;
           ramp_low 2.600;
          total total_load;
          load hvac_load;
          state power_state;
     };

     object ZIPload {
          schedule_skew -2502;
          base_power LIGHTS*1.7078;
          power_fraction 0.600000;
          impedance_fraction 0.400000;
          current_fraction 0.000000;
          power_pf -0.780;
          current_pf 0.420;
          impedance_pf -0.880;
          heat_fraction 0.67;
     };
     object ZIPload {
          schedule_skew -2502;
          base_power CLOTHESWASHER*0.4928;
          power_fraction 1.000000;
          impedance_fraction 0.000000;
          current_fraction 0.000000;
          power_pf 0.970;
          current_pf 0.970;
          impedance_pf 0.970;
          heat_fraction 0.90;
     };
     object ZIPload {
          schedule_skew -2502;
          base_power REFRIGERATOR*0.8787;
          power_fraction 1.000000;
          impedance_fraction 0.000000;
          current_fraction 0.000000;
          power_pf 0.970;
          current_pf 0.970;
          impedance_pf 0.970;
          heat_fraction 0.66;
     };
     object ZIPload {
          schedule_skew -2502;
          base_power DRYER*0.3709;
          power_fraction 0.100000;
          impedance_fraction 0.800000;
          current_fraction 0.100000;
          power_pf 0.900;
          current_pf 0.900;
          impedance_pf 1.000;
          heat_fraction 0.93;
     };
     object ZIPload {
          schedule_skew -2502;
          base_power FREEZER*0.6372;
          power_fraction 1.000000;
          impedance_fraction 0.000000;
          current_fraction 0.000000;
          power_pf 0.970;
          current_pf 0.970;
          impedance_pf 0.970;
          heat_fraction 0.85;
     };
     object ZIPload {
          schedule_skew -2502;
          base_power RANGE*0.5287;
          power_fraction 0.000000;
          impedance_fraction 1.000000;
          current_fraction 0.000000;
          power_pf 0.000;
          current_pf 0.000;
          impedance_pf 1.000;
          heat_fraction 0.74;
     };
     object ZIPload {
          schedule_skew -2502;
          base_power MICROWAVE*0.6253;
          power_fraction 1.000000;
          impedance_fraction 0.000000;
          current_fraction 0.000000;
          power_pf 0.970;
          current_pf 0.970;
          impedance_pf 0.970;
          heat_fraction 0.83;
     };
}

object triplex_line {
     from F1_triplex_node_A;
     to F1_tpm_flatrate_A7;
     groupid F1_Triplex_Line;
     phases AS;
     length 10;
     configuration TLCFG;
}

object triplex_meter {
     nominal_voltage 124;
     phases AS;
     name F1_tpm_flatrate_A7;
     groupid F1_flatrate_meter;
}

object triplex_meter {
     nominal_voltage 124;
     phases AS;
     name F1_tpm_rt_A7;
     groupid F1_rt_meter;
     parent F1_tpm_flatrate_A7;
}

object house {
     name H_7;
     //Residential_5
     parent F1_tpm_rt_A7;
     schedule_skew -853;
     Rroof 17.85;
     Rwall 5.35;
     Rfloor 5.40;
     Rdoors 3;
     Rwindows 1.62;
     airchange_per_hour 1.42;
     hvac_power_factor 0.97;
     cooling_system_type ELECTRIC;
     heating_system_type GAS;
     fan_type ONE_SPEED;
     hvac_breaker_rating 200;
     total_thermal_mass_per_floor_area 3.09;
     motor_efficiency AVERAGE;
     motor_model BASIC;
     cooling_COP 3.50;
     floor_area 758;
     number_of_doors 1;
     air_temperature 71.4;
     mass_temperature 71.4;
     heating_setpoint heating7*1.042+2.89;

     object controller {
          name C250_7;
          market Market2;
          schedule_skew -853;
          bid_mode PROXY;
          proxy_average 0.042676;
          proxy_standard_deviation 0.020000;
          proxy_market_id 1;
          proxy_clear_price 0.042676;
          proxy_price_cap 3.78;
          proxy_market_unit kW;
          proxy_initial_price 0.042676;
          bid_delay 89;
          control_mode RAMP;
          base_setpoint cooling7*1.025+4.13;
          setpoint cooling_setpoint;
          target air_temperature;
          deadband thermostat_deadband;
          use_predictive_bidding TRUE;
          average_target current_price_mean_24h;
          standard_deviation_target current_price_stdev_24h;
          period 300;
          demand last_cooling_load;
           range_high 0.000;
           range_low 0.000;
           ramp_high 3.000;
           ramp_low 3.000;
          total total_load;
          load hvac_load;
          state power_state;
     };

     object ZIPload {
          schedule_skew -853;
          base_power LIGHTS*1.3814;
          power_fraction 0.600000;
          impedance_fraction 0.400000;
          current_fraction 0.000000;
          power_pf -0.780;
          current_pf 0.420;
          impedance_pf -0.880;
          heat_fraction 0.82;
     };
     object ZIPload {
          schedule_skew -853;
          base_power CLOTHESWASHER*0.7204;
          power_fraction 1.000000;
          impedance_fraction 0.000000;
          current_fraction 0.000000;
          power_pf 0.970;
          current_pf 0.970;
          impedance_pf 0.970;
          heat_fraction 0.71;
     };
     object ZIPload {
          schedule_skew -853;
          base_power REFRIGERATOR*0.3637;
          power_fraction 1.000000;
          impedance_fraction 0.000000;
          current_fraction 0.000000;
          power_pf 0.970;
          current_pf 0.970;
          impedance_pf 0.970;
          heat_fraction 0.69;
     };
     object ZIPload {
          schedule_skew -853;
          base_power DRYER*0.5055;
          power_fraction 0.100000;
          impedance_fraction 0.800000;
          current_fraction 0.100000;
          power_pf 0.900;
          current_pf 0.900;
          impedance_pf 1.000;
          heat_fraction 0.72;
     };
     object ZIPload {
          schedule_skew -853;
          base_power FREEZER*0.8381;
          power_fraction 1.000000;
          impedance_fraction 0.000000;
          current_fraction 0.000000;
          power_pf 0.970;
          current_pf 0.970;
          impedance_pf 0.970;
          heat_fraction 0.78;
     };
     object ZIPload {
          schedule_skew -853;
          base_power RANGE*0.9494;
          power_fraction 0.000000;
          impedance_fraction 1.000000;
          current_fraction 0.000000;
          power_pf 0.000;
          current_pf 0.000;
          impedance_pf 1.000;
          heat_fraction 0.87;
     };
     object ZIPload {
          schedule_skew -853;
          base_power MICROWAVE*0.8477;
          power_fraction 1.000000;
          impedance_fraction 0.000000;
          current_fraction 0.000000;
          power_pf 0.970;
          current_pf 0.970;
          impedance_pf 0.970;
          heat_fraction 0.64;
     };
}

object triplex_line {
     from F1_triplex_node_A;
     to F1_tpm_flatrate_A8;
     groupid F1_Triplex_Line;
     phases AS;
     length 10;
     configuration TLCFG;
}

object triplex_meter {
     nominal_voltage 124;
     phases AS;
     name F1_tpm_flatrate_A8;
     groupid F1_flatrate_meter;
}

object triplex_meter {
     nominal_voltage 124;
     phases AS;
     name F1_tpm_rt_A8;
     groupid F1_rt_meter;
     parent F1_tpm_flatrate_A8;
}

object house {
     name H_8;
     //Residential_1
     parent F1_tpm_rt_A8;
     schedule_skew -897;
     Rroof 18.55;
     Rwall 13.76;
     Rfloor 11.90;
     Rdoors 3;
     Rwindows 1.02;
     airchange_per_hour 0.94;
     hvac_power_factor 0.97;
     cooling_system_type ELECTRIC;
     heating_system_type GAS;
     fan_type ONE_SPEED;
     hvac_breaker_rating 200;
     total_thermal_mass_per_floor_area 4.69;
     motor_efficiency AVERAGE;
     motor_model BASIC;
     cooling_COP 2.67;
     floor_area 795;
     number_of_doors 1;
     air_temperature 69.1;
     mass_temperature 69.1;
     heating_setpoint heating6*0.987+0.06;

     object controller {
          name C250_8;
          market Market2;
          schedule_skew -897;
          bid_mode PROXY;
          proxy_average 0.042676;
          proxy_standard_deviation 0.020000;
          proxy_market_id 1;
          proxy_clear_price 0.042676;
          proxy_price_cap 3.78;
          proxy_market_unit kW;
          proxy_initial_price 0.042676;
          bid_delay 75;
          control_mode RAMP;
          base_setpoint cooling2*1.041+2.38;
          setpoint cooling_setpoint;
          target air_temperature;
          deadband thermostat_deadband;
          use_predictive_bidding TRUE;
          average_target current_price_mean_24h;
          standard_deviation_target current_price_stdev_24h;
          period 300;
          demand last_cooling_load;
           range_high 6.000;
           range_low -3.000;
           ramp_high 2.400;
           ramp_low 2.400;
          total total_load;
          load hvac_load;
          state power_state;
     };

     object ZIPload {
          schedule_skew -897;
          base_power LIGHTS*1.0413;
          power_fraction 0.000000;
          impedance_fraction 1.000000;
          current_fraction 0.000000;
          power_pf 0.000;
          current_pf 0.000;
          impedance_pf 1.000;
          heat_fraction 0.94;
     };
}

object triplex_line {
     from F1_triplex_node_A;
     to F1_tpm_flatrate_A9;
     groupid F1_Triplex_Line;
     phases AS;
     length 10;
     configuration TLCFG;
}

object triplex_meter {
     nominal_voltage 124;
     phases AS;
     name F1_tpm_flatrate_A9;
     groupid F1_flatrate_meter;
}

object triplex_meter {
     nominal_voltage 124;
     phases AS;
     name F1_tpm_rt_A9;
     groupid F1_rt_meter;
     parent F1_tpm_flatrate_A9;
}

object house {
     name H_9;
     //Residential_2
     parent F1_tpm_rt_A9;
     schedule_skew 2;
     Rroof 34.65;
     Rwall 16.14;
     Rfloor 16.29;
     Rdoors 5;
     Rwindows 1.65;
     airchange_per_hour 1.13;
     hvac_power_factor 0.97;
     cooling_system_type ELECTRIC;
     heating_system_type GAS;
     fan_type ONE_SPEED;
     hvac_breaker_rating 200;
     total_thermal_mass_per_floor_area 3.70;
     motor_efficiency AVERAGE;
     motor_model BASIC;
     cooling_COP 4.14;
     floor_area 1152;
     number_of_doors 2;
     air_temperature 70.4;
     mass_temperature 70.4;
     heating_setpoint heating1*0.978+2.95;

     object controller {
          name C250_9;
          market Market2;
          schedule_skew 2;
          bid_mode PROXY;
          proxy_average 0.042676;
          proxy_standard_deviation 0.020000;
          proxy_market_id 1;
          proxy_clear_price 0.042676;
          proxy_price_cap 3.78;
          proxy_market_unit kW;
          proxy_initial_price 0.042676;
          bid_delay 90;
          control_mode RAMP;
          base_setpoint cooling1*0.986+4.73;
          setpoint cooling_setpoint;
          target air_temperature;
          deadband thermostat_deadband;
          use_predictive_bidding TRUE;
          average_target current_price_mean_24h;
          standard_deviation_target current_price_stdev_24h;
          period 300;
          demand last_cooling_load;
           range_high 4.000;
           range_low -2.000;
           ramp_high 2.600;
           ramp_low 2.600;
          total total_load;
          load hvac_load;
          state power_state;
     };

     object ZIPload {
          schedule_skew 2;
          base_power LIGHTS*2.4146;
          power_fraction 0.600000;
          impedance_fraction 0.400000;
          current_fraction 0.000000;
          power_pf -0.780;
          current_pf 0.420;
          impedance_pf -0.880;
          heat_fraction 0.68;
     };
     object ZIPload {
          schedule_skew 2;
          base_power CLOTHESWASHER*0.4567;
          power_fraction 1.000000;
          impedance_fraction 0.000000;
          current_fraction 0.000000;
          power_pf 0.970;
          current_pf 0.970;
          impedance_pf 0.970;
          heat_fraction 0.86;
     };
     object ZIPload {
          schedule_skew 2;
          base_power REFRIGERATOR*0.4973;
          power_fraction 1.000000;
          impedance_fraction 0.000000;
          current_fraction 0.000000;
          power_pf 0.970;
          current_pf 0.970;
          impedance_pf 0.970;
          heat_fraction 0.69;
     };
     object ZIPload {
          schedule_skew 2;
          base_power DRYER*0.7556;
          power_fraction 0.100000;
          impedance_fraction 0.800000;
          current_fraction 0.100000;
          power_pf 0.900;
          current_pf 0.900;
          impedance_pf 1.000;
          heat_fraction 0.95;
     };
     object ZIPload {
          schedule_skew 2;
          base_power FREEZER*0.5745;
          power_fraction 1.000000;
          impedance_fraction 0.000000;
          current_fraction 0.000000;
          power_pf 0.970;
          current_pf 0.970;
          impedance_pf 0.970;
          heat_fraction 0.95;
     };
     object ZIPload {
          schedule_skew 2;
          base_power RANGE*0.4864;
          power_fraction 0.000000;
          impedance_fraction 1.000000;
          current_fraction 0.000000;
          power_pf 0.000;
          current_pf 0.000;
          impedance_pf 1.000;
          heat_fraction 0.79;
     };
     object ZIPload {
          schedule_skew 2;
          base_power MICROWAVE*1.1939;
          power_fraction 1.000000;
          impedance_fraction 0.000000;
          current_fraction 0.000000;
          power_pf 0.970;
          current_pf 0.970;
          impedance_pf 0.970;
          heat_fraction 0.71;
     };
}

object triplex_line {
     from F1_triplex_node_A;
     to F1_tpm_flatrate_A10;
     groupid F1_Triplex_Line;
     phases AS;
     length 10;
     configuration TLCFG;
}

object triplex_meter {
     nominal_voltage 124;
     phases AS;
     name F1_tpm_flatrate_A10;
     groupid F1_flatrate_meter;
}

object triplex_meter {
     nominal_voltage 124;
     phases AS;
     name F1_tpm_rt_A10;
     groupid F1_rt_meter;
     parent F1_tpm_flatrate_A10;
}

object house {
     name H_10;
     //Residential_1
     parent F1_tpm_rt_A10;
     schedule_skew 141;
     Rroof 18.66;
     Rwall 12.58;
     Rfloor 11.72;
     Rdoors 3;
     Rwindows 1.55;
     airchange_per_hour 1.15;
     hvac_power_factor 0.97;
     cooling_system_type ELECTRIC;
     heating_system_type GAS;
     fan_type ONE_SPEED;
     hvac_breaker_rating 200;
     total_thermal_mass_per_floor_area 4.85;
     motor_efficiency AVERAGE;
     motor_model BASIC;
     cooling_COP 3.03;
     floor_area 756;
     number_of_doors 1;
     air_temperature 70.8;
     mass_temperature 70.8;
     heating_setpoint heating5*1.040+1.51;

     object controller {
          name C250_10;
          market Market2;
          schedule_skew 141;
          bid_mode PROXY;
          proxy_average 0.042676;
          proxy_standard_deviation 0.020000;
          proxy_market_id 1;
          proxy_clear_price 0.042676;
          proxy_price_cap 3.78;
          proxy_market_unit kW;
          proxy_initial_price 0.042676;
          bid_delay 38;
          control_mode RAMP;
          base_setpoint cooling8*1.013+3.11;
          setpoint cooling_setpoint;
          target air_temperature;
          deadband thermostat_deadband;
          use_predictive_bidding TRUE;
          average_target current_price_mean_24h;
          standard_deviation_target current_price_stdev_24h;
          period 300;
          demand last_cooling_load;
           range_high 4.000;
           range_low -2.000;
           ramp_high 2.600;
           ramp_low 2.600;
          total total_load;
          load hvac_load;
          state power_state;
     };

     object ZIPload {
          schedule_skew 141;
          base_power LIGHTS*1.2895;
          power_fraction 0.600000;
          impedance_fraction 0.400000;
          current_fraction 0.000000;
          power_pf -0.780;
          current_pf 0.420;
          impedance_pf -0.880;
          heat_fraction 0.64;
     };
     object ZIPload {
          schedule_skew 141;
          base_power CLOTHESWASHER*0.6897;
          power_fraction 1.000000;
          impedance_fraction 0.000000;
          current_fraction 0.000000;
          power_pf 0.970;
          current_pf 0.970;
          impedance_pf 0.970;
          heat_fraction 0.81;
     };
     object ZIPload {
          schedule_skew 141;
          base_power REFRIGERATOR*0.8087;
          power_fraction 1.000000;
          impedance_fraction 0.000000;
          current_fraction 0.000000;
          power_pf 0.970;
          current_pf 0.970;
          impedance_pf 0.970;
          heat_fraction 0.71;
     };
     object ZIPload {
          schedule_skew 141;
          base_power DRYER*0.3439;
          power_fraction 0.100000;
          impedance_fraction 0.800000;
          current_fraction 0.100000;
          power_pf 0.900;
          current_pf 0.900;
          impedance_pf 1.000;
          heat_fraction 0.71;
     };
     object ZIPload {
          schedule_skew 141;
          base_power RANGE*0.3046;
          power_fraction 0.000000;
          impedance_fraction 1.000000;
          current_fraction 0.000000;
          power_pf 0.000;
          current_pf 0.000;
          impedance_pf 1.000;
          heat_fraction 0.76;
     };
     object ZIPload {
          schedule_skew 141;
          base_power MICROWAVE*0.7241;
          power_fraction 1.000000;
          impedance_fraction 0.000000;
          current_fraction 0.000000;
          power_pf 0.970;
          current_pf 0.970;
          impedance_pf 0.970;
          heat_fraction 0.69;
     };
}

object triplex_line {
     from F1_triplex_node_A;
     to F1_tpm_flatrate_A11;
     groupid F1_Triplex_Line;
     phases AS;
     length 10;
     configuration TLCFG;
}

object triplex_meter {
     nominal_voltage 124;
     phases AS;
     name F1_tpm_flatrate_A11;
     groupid F1_flatrate_meter;
}

object triplex_meter {
     nominal_voltage 124;
     phases AS;
     name F1_tpm_rt_A11;
     groupid F1_rt_meter;
     parent F1_tpm_flatrate_A11;
}

object house {
     name H_11;
     //Residential_1
     parent F1_tpm_rt_A11;
     schedule_skew -224;
     Rroof 20.74;
     Rwall 10.77;
     Rfloor 11.01;
     Rdoors 3;
     Rwindows 1.37;
     airchange_per_hour 0.82;
     hvac_power_factor 0.97;
     cooling_system_type ELECTRIC;
     heating_system_type GAS;
     fan_type ONE_SPEED;
     hvac_breaker_rating 200;
     total_thermal_mass_per_floor_area 3.21;
     motor_efficiency AVERAGE;
     motor_model BASIC;
     cooling_COP 2.99;
     floor_area 1064;
     number_of_doors 2;
     air_temperature 69.7;
     mass_temperature 69.7;
     heating_setpoint heating8*1.039+2.94;

     object controller {
          name C250_11;
          market Market2;
          schedule_skew -224;
          bid_mode PROXY;
          proxy_average 0.042676;
          proxy_standard_deviation 0.020000;
          proxy_market_id 1;
          proxy_clear_price 0.042676;
          proxy_price_cap 3.78;
          proxy_market_unit kW;
          proxy_initial_price 0.042676;
          bid_delay 40;
          control_mode RAMP;
          base_setpoint cooling5*1.000+4.15;
          setpoint cooling_setpoint;
          target air_temperature;
          deadband thermostat_deadband;
          use_predictive_bidding TRUE;
          average_target current_price_mean_24h;
          standard_deviation_target current_price_stdev_24h;
          period 300;
          demand last_cooling_load;
           range_high 4.000;
           range_low -2.000;
           ramp_high 2.600;
           ramp_low 2.600;
          total total_load;
          load hvac_load;
          state power_state;
     };

     object ZIPload {
          schedule_skew -224;
          base_power LIGHTS*1.4229;
          power_fraction 0.600000;
          impedance_fraction 0.400000;
          current_fraction 0.000000;
          power_pf -0.780;
          current_pf 0.420;
          impedance_pf -0.880;
          heat_fraction 0.66;
     };
}

object triplex_line {
     from F1_triplex_node_A;
     to F1_tpm_flatrate_A12;
     groupid F1_Triplex_Line;
     phases AS;
     length 10;
     configuration TLCFG;
}

object triplex_meter {
     nominal_voltage 124;
     phases AS;
     name F1_tpm_flatrate_A12;
     groupid F1_flatrate_meter;
}

object triplex_meter {
     nominal_voltage 124;
     phases AS;
     name F1_tpm_rt_A12;
     groupid F1_rt_meter;
     parent F1_tpm_flatrate_A12;
}

object house {
     name H_12;
     //Residential_4
     parent F1_tpm_rt_A12;
     schedule_skew 137;
     Rroof 31.43;
     Rwall 18.93;
     Rfloor 15.37;
     Rdoors 5;
     Rwindows 1.96;
     airchange_per_hour 1.15;
     hvac_power_factor 0.97;
     cooling_system_type ELECTRIC;
     heating_system_type GAS;
     fan_type ONE_SPEED;
     hvac_breaker_rating 200;
     total_thermal_mass_per_floor_area 3.50;
     motor_efficiency AVERAGE;
     motor_model BASIC;
     cooling_COP 3.82;
     floor_area 2283;
     number_of_doors 3;
     air_temperature 69.0;
     mass_temperature 69.0;
     heating_setpoint heating4*0.965+2.61;

     object controller {
          name C250_12;
          market Market2;
          schedule_skew 137;
          bid_mode PROXY;
          proxy_average 0.042676;
          proxy_standard_deviation 0.020000;
          proxy_market_id 1;
          proxy_clear_price 0.042676;
          proxy_price_cap 3.78;
          proxy_market_unit kW;
          proxy_initial_price 0.042676;
          bid_delay 77;
          control_mode RAMP;
          base_setpoint cooling6*0.988+4.02;
          setpoint cooling_setpoint;
          target air_temperature;
          deadband thermostat_deadband;
          use_predictive_bidding TRUE;
          average_target current_price_mean_24h;
          standard_deviation_target current_price_stdev_24h;
          period 300;
          demand last_cooling_load;
           range_high 2.000;
           range_low -1.000;
           ramp_high 2.800;
           ramp_low 2.800;
          total total_load;
          load hvac_load;
          state power_state;
     };

     object ZIPload {
          schedule_skew 137;
          base_power LIGHTS*2.5304;
          power_fraction 0.600000;
          impedance_fraction 0.400000;
          current_fraction 0.000000;
          power_pf -0.780;
          current_pf 0.420;
          impedance_pf -0.880;
          heat_fraction 0.80;
     };
     object ZIPload {
          schedule_skew 137;
          base_power CLOTHESWASHER*1.1045;
          power_fraction 1.000000;
          impedance_fraction 0.000000;
          current_fraction 0.000000;
          power_pf 0.970;
          current_pf 0.970;
          impedance_pf 0.970;
          heat_fraction 0.74;
     };
     object ZIPload {
          schedule_skew 137;
          base_power REFRIGERATOR*0.8888;
          power_fraction 1.000000;
          impedance_fraction 0.000000;
          current_fraction 0.000000;
          power_pf 0.970;
          current_pf 0.970;
          impedance_pf 0.970;
          heat_fraction 0.76;
     };
     object ZIPload {
          schedule_skew 137;
          base_power DRYER*0.6976;
          power_fraction 0.100000;
          impedance_fraction 0.800000;
          current_fraction 0.100000;
          power_pf 0.900;
          current_pf 0.900;
          impedance_pf 1.000;
          heat_fraction 0.81;
     };
     object ZIPload {
          schedule_skew 137;
          base_power FREEZER*1.4601;
          power_fraction 1.000000;
          impedance_fraction 0.000000;
          current_fraction 0.000000;
          power_pf 0.970;
          current_pf 0.970;
          impedance_pf 0.970;
          heat_fraction 0.95;
     };
     object ZIPload {
          schedule_skew 137;
          base_power RANGE*1.2492;
          power_fraction 0.000000;
          impedance_fraction 1.000000;
          current_fraction 0.000000;
          power_pf 0.000;
          current_pf 0.000;
          impedance_pf 1.000;
          heat_fraction 0.80;
     };
     object ZIPload {
          schedule_skew 137;
          base_power MICROWAVE*1.2494;
          power_fraction 1.000000;
          impedance_fraction 0.000000;
          current_fraction 0.000000;
          power_pf 0.970;
          current_pf 0.970;
          impedance_pf 0.970;
          heat_fraction 0.66;
     };
}

object triplex_line {
     from F1_triplex_node_A;
     to F1_tpm_flatrate_A13;
     groupid F1_Triplex_Line;
     phases AS;
     length 10;
     configuration TLCFG;
}

object triplex_meter {
     nominal_voltage 124;
     phases AS;
     name F1_tpm_flatrate_A13;
     groupid F1_flatrate_meter;
}

object triplex_meter {
     nominal_voltage 124;
     phases AS;
     name F1_tpm_rt_A13;
     groupid F1_rt_meter;
     parent F1_tpm_flatrate_A13;
}

object house {
     name H_13;
     //Residential_5
     parent F1_tpm_rt_A13;
     schedule_skew -747;
     Rroof 16.62;
     Rwall 6.72;
     Rfloor 6.00;
     Rdoors 3;
     Rwindows 1.59;
     airchange_per_hour 1.57;
     hvac_power_factor 0.97;
     cooling_system_type ELECTRIC;
     heating_system_type GAS;
     fan_type ONE_SPEED;
     hvac_breaker_rating 200;
     total_thermal_mass_per_floor_area 3.31;
     motor_efficiency AVERAGE;
     motor_model BASIC;
     cooling_COP 3.17;
     floor_area 606;
     number_of_doors 1;
     air_temperature 71.9;
     mass_temperature 71.9;
     heating_setpoint heating3*0.968+1.84;

     object controller {
          name C250_13;
          market Market2;
          schedule_skew -747;
          bid_mode PROXY;
          proxy_average 0.042676;
          proxy_standard_deviation 0.020000;
          proxy_market_id 1;
          proxy_clear_price 0.042676;
          proxy_price_cap 3.78;
          proxy_market_unit kW;
          proxy_initial_price 0.042676;
          bid_delay 81;
          control_mode RAMP;
          base_setpoint cooling3*1.024+5.51;
          setpoint cooling_setpoint;
          target air_temperature;
          deadband thermostat_deadband;
          use_predictive_bidding TRUE;
          average_target current_price_mean_24h;
          standard_deviation_target current_price_stdev_24h;
          period 300;
          demand last_cooling_load;
           range_high 6.000;
           range_low -3.000;
           ramp_high 2.400;
           ramp_low 2.400;
          total total_load;
          load hvac_load;
          state power_state;
     };

     object ZIPload {
          schedule_skew -747;
          base_power LIGHTS*1.3130;
          power_fraction 0.000000;
          impedance_fraction 1.000000;
          current_fraction 0.000000;
          power_pf 0.000;
          current_pf 0.000;
          impedance_pf 1.000;
          heat_fraction 0.93;
     };
     object ZIPload {
          schedule_skew -747;
          base_power CLOTHESWASHER*0.8808;
          power_fraction 1.000000;
          impedance_fraction 0.000000;
          current_fraction 0.000000;
          power_pf 0.970;
          current_pf 0.970;
          impedance_pf 0.970;
          heat_fraction 0.69;
     };
     object ZIPload {
          schedule_skew -747;
          base_power REFRIGERATOR*0.8734;
          power_fraction 1.000000;
          impedance_fraction 0.000000;
          current_fraction 0.000000;
          power_pf 0.970;
          current_pf 0.970;
          impedance_pf 0.970;
          heat_fraction 0.72;
     };
     object ZIPload {
          schedule_skew -747;
          base_power DRYER*0.8634;
          power_fraction 0.100000;
          impedance_fraction 0.800000;
          current_fraction 0.100000;
          power_pf 0.900;
          current_pf 0.900;
          impedance_pf 1.000;
          heat_fraction 0.96;
     };
     object ZIPload {
          schedule_skew -747;
          base_power FREEZER*0.7324;
          power_fraction 1.000000;
          impedance_fraction 0.000000;
          current_fraction 0.000000;
          power_pf 0.970;
          current_pf 0.970;
          impedance_pf 0.970;
          heat_fraction 0.84;
     };
     object ZIPload {
          schedule_skew -747;
          base_power RANGE*0.8833;
          power_fraction 0.000000;
          impedance_fraction 1.000000;
          current_fraction 0.000000;
          power_pf 0.000;
          current_pf 0.000;
          impedance_pf 1.000;
          heat_fraction 0.92;
     };
     object ZIPload {
          schedule_skew -747;
          base_power MICROWAVE*0.3279;
          power_fraction 1.000000;
          impedance_fraction 0.000000;
          current_fraction 0.000000;
          power_pf 0.970;
          current_pf 0.970;
          impedance_pf 0.970;
          heat_fraction 0.76;
     };
}

object triplex_line {
     from F1_triplex_node_A;
     to F1_tpm_flatrate_A14;
     groupid F1_Triplex_Line;
     phases AS;
     length 10;
     configuration TLCFG;
}

object triplex_meter {
     nominal_voltage 124;
     phases AS;
     name F1_tpm_flatrate_A14;
     groupid F1_flatrate_meter;
}

object triplex_meter {
     nominal_voltage 124;
     phases AS;
     name F1_tpm_rt_A14;
     groupid F1_rt_meter;
     parent F1_tpm_flatrate_A14;
}

object house {
     name H_14;
     //Residential_5
     parent F1_tpm_rt_A14;
     schedule_skew -1945;
     Rroof 15.63;
     Rwall 6.15;
     Rfloor 5.49;
     Rdoors 3;
     Rwindows 1.64;
     airchange_per_hour 1.37;
     hvac_power_factor 0.97;
     cooling_system_type ELECTRIC;
     heating_system_type GAS;
     fan_type ONE_SPEED;
     hvac_breaker_rating 200;
     total_thermal_mass_per_floor_area 4.17;
     motor_efficiency AVERAGE;
     motor_model BASIC;
     cooling_COP 3.03;
     floor_area 799;
     number_of_doors 1;
     air_temperature 69.1;
     mass_temperature 69.1;
     heating_setpoint heating1*0.990+0.77;

     object controller {
          name C250_14;
          market Market2;
          schedule_skew -1945;
          bid_mode PROXY;
          proxy_average 0.042676;
          proxy_standard_deviation 0.020000;
          proxy_market_id 1;
          proxy_clear_price 0.042676;
          proxy_price_cap 3.78;
          proxy_market_unit kW;
          proxy_initial_price 0.042676;
          bid_delay 72;
          control_mode RAMP;
          base_setpoint cooling5*0.952+3.78;
          setpoint cooling_setpoint;
          target air_temperature;
          deadband thermostat_deadband;
          use_predictive_bidding TRUE;
          average_target current_price_mean_24h;
          standard_deviation_target current_price_stdev_24h;
          period 300;
          demand last_cooling_load;
           range_high 4.000;
           range_low -2.000;
           ramp_high 2.600;
           ramp_low 2.600;
          total total_load;
          load hvac_load;
          state power_state;
     };

     object ZIPload {
          schedule_skew -1945;
          base_power LIGHTS*1.1051;
          power_fraction 0.600000;
          impedance_fraction 0.400000;
          current_fraction 0.000000;
          power_pf -0.780;
          current_pf 0.420;
          impedance_pf -0.880;
          heat_fraction 0.89;
     };
     object ZIPload {
          schedule_skew -1945;
          base_power CLOTHESWASHER*1.0002;
          power_fraction 1.000000;
          impedance_fraction 0.000000;
          current_fraction 0.000000;
          power_pf 0.970;
          current_pf 0.970;
          impedance_pf 0.970;
          heat_fraction 0.91;
     };
     object ZIPload {
          schedule_skew -1945;
          base_power REFRIGERATOR*0.6357;
          power_fraction 1.000000;
          impedance_fraction 0.000000;
          current_fraction 0.000000;
          power_pf 0.970;
          current_pf 0.970;
          impedance_pf 0.970;
          heat_fraction 0.87;
     };
     object ZIPload {
          schedule_skew -1945;
          base_power DRYER*0.5800;
          power_fraction 0.100000;
          impedance_fraction 0.800000;
          current_fraction 0.100000;
          power_pf 0.900;
          current_pf 0.900;
          impedance_pf 1.000;
          heat_fraction 0.80;
     };
     object ZIPload {
          schedule_skew -1945;
          base_power FREEZER*0.4886;
          power_fraction 1.000000;
          impedance_fraction 0.000000;
          current_fraction 0.000000;
          power_pf 0.970;
          current_pf 0.970;
          impedance_pf 0.970;
          heat_fraction 0.87;
     };
     object ZIPload {
          schedule_skew -1945;
          base_power RANGE*0.6931;
          power_fraction 0.000000;
          impedance_fraction 1.000000;
          current_fraction 0.000000;
          power_pf 0.000;
          current_pf 0.000;
          impedance_pf 1.000;
          heat_fraction 0.87;
     };
     object ZIPload {
          schedule_skew -1945;
          base_power MICROWAVE*0.9072;
          power_fraction 1.000000;
          impedance_fraction 0.000000;
          current_fraction 0.000000;
          power_pf 0.970;
          current_pf 0.970;
          impedance_pf 0.970;
          heat_fraction 0.79;
     };
}

object triplex_line {
     from F1_triplex_node_A;
     to F1_tpm_flatrate_A15;
     groupid F1_Triplex_Line;
     phases AS;
     length 10;
     configuration TLCFG;
}

object triplex_meter {
     nominal_voltage 124;
     phases AS;
     name F1_tpm_flatrate_A15;
     groupid F1_flatrate_meter;
}

object triplex_meter {
     nominal_voltage 124;
     phases AS;
     name F1_tpm_rt_A15;
     groupid F1_rt_meter;
     parent F1_tpm_flatrate_A15;
}

object house {
     name H_15;
     //Residential_1
     parent F1_tpm_rt_A15;
     schedule_skew -359;
     Rroof 19.62;
     Rwall 11.95;
     Rfloor 10.01;
     Rdoors 3;
     Rwindows 1.62;
     airchange_per_hour 0.89;
     hvac_power_factor 0.97;
     cooling_system_type ELECTRIC;
     heating_system_type GAS;
     fan_type ONE_SPEED;
     hvac_breaker_rating 200;
     total_thermal_mass_per_floor_area 4.82;
     motor_efficiency AVERAGE;
     motor_model BASIC;
     cooling_COP 3.01;
     floor_area 1283;
     number_of_doors 2;
     air_temperature 71.0;
     mass_temperature 71.0;
     heating_setpoint heating8*0.971+0.46;

     object controller {
          name C250_15;
          market Market2;
          schedule_skew -359;
          bid_mode PROXY;
          proxy_average 0.042676;
          proxy_standard_deviation 0.020000;
          proxy_market_id 1;
          proxy_clear_price 0.042676;
          proxy_price_cap 3.78;
          proxy_market_unit kW;
          proxy_initial_price 0.042676;
          bid_delay 87;
          control_mode RAMP;
          base_setpoint cooling4*1.020+3.85;
          setpoint cooling_setpoint;
          target air_temperature;
          deadband thermostat_deadband;
          use_predictive_bidding TRUE;
          average_target current_price_mean_24h;
          standard_deviation_target current_price_stdev_24h;
          period 300;
          demand last_cooling_load;
           range_high 0.000;
           range_low 0.000;
           ramp_high 3.000;
           ramp_low 3.000;
          total total_load;
          load hvac_load;
          state power_state;
     };

     object ZIPload {
          schedule_skew -359;
          base_power LIGHTS*0.9890;
          power_fraction 0.600000;
          impedance_fraction 0.400000;
          current_fraction 0.000000;
          power_pf -0.780;
          current_pf 0.420;
          impedance_pf -0.880;
          heat_fraction 0.69;
     };
     object ZIPload {
          schedule_skew -359;
          base_power CLOTHESWASHER*0.8416;
          power_fraction 1.000000;
          impedance_fraction 0.000000;
          current_fraction 0.000000;
          power_pf 0.970;
          current_pf 0.970;
          impedance_pf 0.970;
          heat_fraction 0.71;
     };
     object ZIPload {
          schedule_skew -359;
          base_power REFRIGERATOR*1.1381;
          power_fraction 1.000000;
          impedance_fraction 0.000000;
          current_fraction 0.000000;
          power_pf 0.970;
          current_pf 0.970;
          impedance_pf 0.970;
          heat_fraction 0.70;
     };
     object ZIPload {
          schedule_skew -359;
          base_power DRYER*0.4797;
          power_fraction 0.100000;
          impedance_fraction 0.800000;
...